Version 4.1
SHEET 1 1576 920
WIRE 256 32 0 32
WIRE 496 32 256 32
WIRE 944 32 496 32
WIRE 0 96 0 32
WIRE 496 96 496 32
WIRE 256 112 48 112
WIRE 448 112 256 112
WIRE 944 128 944 32
WIRE 0 144 0 112
WIRE 496 144 496 112
WIRE 688 192 624 192
WIRE 256 224 256 112
WIRE 624 224 624 192
WIRE 624 224 256 224
WIRE 0 256 0 192
WIRE 0 256 -512 256
WIRE 496 272 496 192
WIRE 496 272 -224 272
WIRE 688 288 688 272
WIRE 944 288 944 208
WIRE 1040 288 944 288
WIRE 0 320 0 256
WIRE 496 320 496 272
WIRE 944 320 944 288
WIRE 256 336 48 336
WIRE 448 336 256 336
WIRE -512 352 -512 256
WIRE -224 352 -224 272
WIRE 0 368 0 336
WIRE 496 368 496 336
WIRE 944 400 944 368
WIRE 1040 400 1040 288
WIRE 1040 400 992 400
WIRE -560 432 -640 432
WIRE -512 432 -512 400
WIRE -224 432 -224 400
WIRE -112 432 -176 432
WIRE -32 432 -112 432
WIRE 256 432 256 336
WIRE 752 432 256 432
WIRE 0 464 0 416
WIRE 128 464 0 464
WIRE 496 464 496 416
WIRE 608 464 496 464
WIRE 752 464 752 432
WIRE -640 480 -640 432
WIRE -112 480 -112 432
WIRE -512 496 -512 448
WIRE -368 496 -512 496
WIRE -224 496 -224 448
WIRE -224 496 -368 496
WIRE 608 496 608 464
WIRE 0 512 0 464
WIRE 496 512 496 464
WIRE 944 528 944 416
WIRE 752 560 752 544
WIRE -368 592 -368 496
WIRE -112 592 -112 560
WIRE 0 592 0 560
WIRE 256 592 48 592
WIRE 448 592 256 592
WIRE 496 592 496 560
WIRE 608 592 608 560
WIRE -640 608 -640 560
WIRE -896 624 -896 560
WIRE 256 640 256 592
WIRE 752 640 256 640
WIRE 752 656 752 640
WIRE -416 672 -480 672
WIRE -368 672 -368 640
WIRE 0 688 0 608
WIRE 496 688 496 608
WIRE -112 704 -112 672
WIRE -640 720 -640 688
WIRE -896 752 -896 704
WIRE 752 752 752 736
WIRE 0 768 0 736
WIRE 128 768 128 464
WIRE 128 768 48 768
WIRE 448 768 128 768
WIRE 496 768 496 736
WIRE -368 784 -368 688
WIRE 0 832 0 784
WIRE 256 832 0 832
WIRE 496 832 496 784
WIRE 496 832 256 832
WIRE 256 880 256 832
FLAG 256 32 VDD
FLAG -896 560 VDD
FLAG -896 752 0
FLAG 256 880 0
FLAG -640 720 0
FLAG -112 704 0
FLAG -368 784 0
FLAG 688 288 0
FLAG 752 560 0
FLAG 752 752 0
FLAG -480 672 CM
FLAG 944 528 0
FLAG 1040 400 CM
FLAG 608 592 0
SYMBOL lib\\sym\\cmosp 48 192 R180
SYMATTR InstName M1
SYMATTR Value2 l=10u w=80u
SYMBOL lib\\sym\\cmosp 448 192 M180
SYMATTR InstName M2
SYMATTR Value2 l=10u w=80u
SYMBOL voltage -896 608 R0
WINDOW 123 24 124 Left 2
WINDOW 39 0 0 Left 0
SYMATTR InstName V1
SYMATTR Value 5
SYMBOL lib\\sym\\cmosp 48 416 R180
SYMATTR InstName M3
SYMATTR Value2 l=2u w=15u
SYMBOL lib\\sym\\cmosp 448 416 M180
SYMATTR InstName M4
SYMATTR Value2 l=2u w=15u
SYMBOL lib\\sym\\cmosn 48 512 M0
SYMATTR InstName M5
SYMATTR Value2 l=3u w=125u
SYMBOL lib\\sym\\cmosn 448 512 R0
SYMATTR InstName M6
SYMATTR Value2 l=3u w=125u
SYMBOL lib\\sym\\cmosn 48 688 M0
SYMATTR InstName M7
SYMATTR Value2 l=4u w=2u
SYMBOL lib\\sym\\cmosn 448 688 R0
SYMATTR InstName M8
SYMATTR Value2 l=4u w=2u
SYMBOL lib\\sym\\cmosn -560 352 R0
SYMATTR InstName M9
SYMATTR Value2 l=4u w=25u
SYMBOL lib\\sym\\cmosn -176 352 M0
SYMATTR InstName M10
SYMATTR Value2 l=4u w=25u
SYMBOL lib\\sym\\cmosn -416 592 R0
SYMATTR InstName M11
SYMATTR Value2 l=5u w=25u
SYMBOL voltage -640 464 R0
WINDOW 123 0 0 Left 0
WINDOW 39 0 0 Left 0
SYMATTR InstName V2
SYMATTR Value 1.5
SYMBOL voltage -640 592 R0
WINDOW 3 -81 168 Left 2
WINDOW 123 24 44 Left 2
WINDOW 39 0 0 Left 0
SYMATTR Value PULSE(0 1 10ms 1e-40 1e-40 0.05 0.1 2)
SYMATTR Value2 AC 1
SYMATTR InstName V3
SYMBOL voltage -112 464 R0
WINDOW 123 0 0 Left 0
WINDOW 39 0 0 Left 0
SYMATTR InstName V4
SYMATTR Value 1.5
SYMBOL voltage -112 576 R0
WINDOW 3 -121 160 Left 2
WINDOW 123 24 44 Left 2
WINDOW 39 0 0 Left 0
SYMATTR Value ""
SYMATTR Value2 AC 1 180
SYMATTR InstName V5
SYMBOL voltage 688 176 R0
WINDOW 123 0 0 Left 0
WINDOW 39 0 0 Left 0
SYMATTR InstName V7
SYMATTR Value 3.8
SYMBOL voltage 752 448 R0
WINDOW 123 0 0 Left 0
WINDOW 39 0 0 Left 0
SYMATTR InstName V8
SYMATTR Value 3
SYMBOL voltage 752 640 R0
WINDOW 123 0 0 Left 0
WINDOW 39 0 0 Left 0
SYMATTR InstName V9
SYMATTR Value 1.25
SYMBOL lib\\sym\\cmosn 992 320 M0
SYMATTR InstName M12
SYMATTR Value2 l=5u w=25u
SYMBOL lib\\sym\\current 944 128 R0
WINDOW 123 0 0 Left 0
WINDOW 39 0 0 Left 0
SYMATTR InstName I1
SYMATTR Value 50µ
SYMBOL cap 592 496 R0
SYMATTR InstName C1
SYMATTR Value 5p
TEXT 920 616 Left 2 !.INCLUDE tsmc018.lib
TEXT -928 904 Left 2 ;.op
TEXT 928 664 Left 2 !.ac dec 1000 0.1 10GHz
TEXT 936 720 Left 2 ;.tran 0 0.1 0 10u
TEXT 1264 64 Left 2 ;DC Gain: 50dB
TEXT 1264 104 Left 2 ;UGB: 9.4MHz
TEXT 1264 136 Left 2 ;Phase margin: 75deg
TEXT 1264 184 Left 2 ;DM Gain: 50dB\nCM Gain: -28dB\nCMRR: 78dB
TEXT 1264 280 Left 2 ;PSRR: 22dB
TEXT 1264 304 Left 2 ;9.63392 V/us -> Slew rate
