Version 4.1
SHEET 1 1916 680
WIRE 160 -256 112 -256
WIRE 432 -256 240 -256
WIRE 432 -224 432 -256
WIRE -128 -192 -528 -192
WIRE 112 -192 112 -256
WIRE 112 -192 -128 -192
WIRE 336 -192 112 -192
WIRE -128 -144 -128 -192
WIRE 336 -144 336 -192
WIRE -16 -128 -80 -128
WIRE 288 -128 -16 -128
WIRE -528 -112 -528 -192
WIRE -128 -96 -128 -128
WIRE 336 -96 336 -128
WIRE -128 0 -128 -48
WIRE -16 0 -16 -128
WIRE -16 0 -128 0
WIRE 336 16 336 -48
WIRE 512 16 336 16
WIRE -528 64 -528 -32
WIRE -448 64 -528 64
WIRE -528 80 -528 64
WIRE 512 96 512 80
WIRE -128 112 -128 0
WIRE 336 128 336 16
WIRE -528 160 -528 128
WIRE -448 160 -448 64
WIRE -448 160 -480 160
WIRE -416 160 -448 160
WIRE -176 192 -272 192
WIRE -128 192 -128 160
WIRE 336 208 336 176
WIRE 480 208 384 208
WIRE -272 224 -272 192
WIRE 480 224 480 208
WIRE -128 304 -128 208
WIRE 112 304 -128 304
WIRE 336 304 336 224
WIRE 336 304 112 304
WIRE -528 320 -528 176
WIRE -272 336 -272 304
WIRE 112 352 112 304
WIRE 480 352 480 304
WIRE -416 432 -416 160
WIRE 64 432 -416 432
WIRE 112 432 112 400
WIRE -272 464 -272 416
WIRE 480 480 480 432
WIRE 112 544 112 448
FLAG 432 -224 0
FLAG -528 320 0
FLAG 112 544 0
FLAG 512 96 0
FLAG -272 464 0
FLAG 480 480 0
SYMBOL lib\\sym\\cmosp -80 -48 R180
SYMATTR InstName M1
SYMATTR Value2 l=15u w=24u
SYMBOL lib\\sym\\cmosp 288 -48 M180
SYMATTR InstName M2
SYMATTR Value2 l=15u w=24u
SYMBOL lib\\sym\\cmosn -176 112 R0
SYMATTR InstName M3
SYMATTR Value2 l=8u w=25u
SYMBOL voltage 144 -256 R270
WINDOW 0 32 56 VTop 2
WINDOW 3 -32 56 VBottom 2
WINDOW 123 4 56 VTop 2
WINDOW 39 0 0 Left 0
SYMATTR InstName V1
SYMATTR Value 5
SYMBOL lib\\sym\\cmosn 384 128 M0
SYMATTR InstName M4
SYMATTR Value2 l=8u w=25u
SYMBOL lib\\sym\\current -528 -112 R0
WINDOW 123 0 0 Left 0
WINDOW 39 0 0 Left 0
SYMATTR InstName I1
SYMATTR Value 50µ
SYMBOL lib\\sym\\cmosn -480 80 M0
SYMATTR InstName M6
SYMATTR Value2 l=2u w=25u
SYMBOL lib\\sym\\cmosn 64 352 R0
SYMATTR InstName M5
SYMATTR Value2 l=2u w=25u
SYMBOL voltage 480 208 R0
WINDOW 123 24 124 Left 2
WINDOW 39 0 0 Left 0
SYMATTR InstName V2
SYMATTR Value 2.5
SYMBOL voltage -272 208 R0
WINDOW 123 24 124 Left 2
WINDOW 39 0 0 Left 0
SYMATTR InstName V3
SYMATTR Value 2.5
SYMBOL cap 496 16 R0
SYMATTR InstName C1
SYMATTR Value 10p
SYMBOL voltage -272 320 R0
WINDOW 123 24 44 Left 2
WINDOW 39 0 0 Left 0
WINDOW 3 24 44 Left 2
SYMATTR Value2 AC 1
SYMATTR Value ""
SYMATTR InstName V4
SYMBOL voltage 480 336 R0
WINDOW 123 24 44 Left 2
WINDOW 39 0 0 Left 0
SYMATTR Value2 AC 1 180
SYMATTR InstName V5
SYMATTR Value ""
TEXT 368 424 Left 2 !.INCLUDE tsmc018.lib
TEXT -568 568 Left 2 !.ac dec 1000 0.01 1GHz
TEXT -568 592 Left 2 ;.tran 0 0.1 0 5u
TEXT 976 -152 Left 2 ;DC gain: 28dB
TEXT 968 -96 Left 2 ;UGB: 4.6574318MHz
TEXT 960 -40 Left 2 ;Phase margin: 56deg
TEXT 960 24 Left 2 ;DM gain: 28dB
TEXT 968 80 Left 2 ;CM gain: -30dB
TEXT 960 120 Left 2 ;CMRR: 58dB
TEXT 976 160 Left 2 ;PSRR: 22dB
TEXT 1056 224 Left 2 ;Max slew rate: 4.93279V/us
TEXT 1000 328 Left 2 ;For slew rate : use this config for volt PULSE(0 1 10ms 1e-40 1e-40 0.05 0.1 2)
