Version 4.1
SHEET 1 1552 948
WIRE 384 -720 224 -720
WIRE 528 -720 464 -720
WIRE 528 -672 528 -720
WIRE -32 -560 -464 -560
WIRE 224 -560 224 -720
WIRE 224 -560 -32 -560
WIRE 480 -560 224 -560
WIRE -32 -496 -32 -560
WIRE 480 -496 480 -560
WIRE 96 -480 16 -480
WIRE 432 -480 96 -480
WIRE -464 -448 -464 -560
WIRE -32 -448 -32 -480
WIRE 480 -448 480 -480
WIRE 688 -256 240 -256
WIRE -32 -224 -32 -400
WIRE 480 -224 480 -400
WIRE 240 -208 240 -256
WIRE 240 -208 16 -208
WIRE 432 -208 240 -208
WIRE 688 -208 688 -256
WIRE -32 -176 -32 -208
WIRE 480 -176 480 -208
WIRE 688 -96 688 -128
WIRE 480 -32 480 -128
WIRE 832 -32 480 -32
WIRE -32 -16 -32 -128
WIRE 96 -16 96 -480
WIRE 96 -16 -32 -16
WIRE 832 16 832 -32
WIRE 480 32 480 -32
WIRE -32 64 -32 -16
WIRE 480 112 480 80
WIRE 592 112 528 112
WIRE -80 144 -176 144
WIRE -32 144 -32 112
WIRE 832 144 832 80
WIRE -176 192 -176 144
WIRE -176 192 -400 192
WIRE 592 192 592 112
WIRE 592 192 -176 192
WIRE 480 224 480 128
WIRE -400 240 -400 192
WIRE -32 240 -32 160
WIRE 480 304 480 272
WIRE 608 304 528 304
WIRE -80 320 -176 320
WIRE -32 320 -32 288
WIRE 608 352 608 304
WIRE -400 368 -400 320
WIRE -32 384 -32 336
WIRE 240 384 -32 384
WIRE 480 384 480 320
WIRE 480 384 240 384
WIRE -176 400 -176 320
WIRE 240 464 240 384
WIRE 608 464 608 432
WIRE 240 544 240 512
WIRE -176 560 -176 480
WIRE 608 576 608 544
WIRE 240 656 240 560
WIRE -464 672 -464 -368
WIRE -464 672 -576 672
WIRE -176 672 -176 640
WIRE -576 720 -576 672
WIRE -576 720 -672 720
WIRE -464 720 -464 672
WIRE -576 800 -576 720
WIRE -512 800 -576 800
WIRE -464 800 -464 768
WIRE -464 928 -464 816
FLAG 240 656 0
FLAG 528 -672 0
FLAG 688 -96 0
FLAG 832 144 0
FLAG -400 368 0
FLAG -176 672 0
FLAG 608 576 0
FLAG -464 928 0
FLAG -672 720 CM
FLAG 192 544 CM
SYMBOL voltage 368 -720 R270
WINDOW 0 32 56 VTop 2
WINDOW 3 -32 56 VBottom 2
WINDOW 123 4 56 VTop 2
WINDOW 39 0 0 Left 0
SYMATTR InstName V1
SYMATTR Value 5
SYMBOL voltage 688 -224 R0
WINDOW 123 0 0 Left 0
WINDOW 39 0 0 Left 0
SYMATTR InstName V2
SYMATTR Value 3.5
SYMBOL cap 816 16 R0
SYMATTR InstName C1
SYMATTR Value 5p
SYMBOL voltage -400 224 R0
WINDOW 123 0 0 Left 0
WINDOW 39 0 0 Left 0
SYMATTR InstName V3
SYMATTR Value 3
SYMBOL voltage -176 384 R0
WINDOW 123 24 44 Left 2
WINDOW 39 0 0 Left 0
WINDOW 3 24 44 Left 2
SYMATTR Value2 AC 1
SYMATTR Value ""
SYMATTR InstName V4
SYMBOL voltage -176 544 R0
WINDOW 123 0 0 Left 0
WINDOW 39 0 0 Left 0
SYMATTR InstName V5
SYMATTR Value 1.25
SYMBOL voltage 608 336 R0
WINDOW 123 24 44 Left 2
WINDOW 39 0 0 Left 0
SYMATTR Value2 AC 1 180
SYMATTR InstName V6
SYMATTR Value ""
SYMBOL voltage 608 448 R0
WINDOW 123 0 0 Left 0
WINDOW 39 0 0 Left 0
SYMATTR InstName V7
SYMATTR Value 1.25
SYMBOL lib\\sym\\cmosp 432 -400 M180
SYMATTR InstName M6
SYMATTR Value2 l=15u w=20u
SYMBOL lib\\sym\\cmosp 16 -400 R180
SYMATTR InstName M8
SYMATTR Value2 l=15u w=20u
SYMBOL lib\\sym\\cmosp 432 -128 M180
SYMATTR InstName M7
SYMATTR Value2 l=4u w=20u
SYMBOL lib\\sym\\cmosp 16 -128 R180
SYMATTR InstName M9
SYMATTR Value2 l=4u w=20u
SYMBOL lib\\sym\\cmosn 528 32 M0
SYMATTR InstName M4
SYMATTR Value2 l=6u w=20u
SYMBOL lib\\sym\\cmosn -80 64 R0
SYMATTR InstName M1
SYMATTR Value2 l=6u w=20u
SYMBOL lib\\sym\\cmosn 528 224 M0
SYMATTR InstName M5
SYMATTR Value2 l=6u w=40u
SYMBOL lib\\sym\\cmosn -80 240 R0
SYMATTR InstName M2
SYMATTR Value2 l=6u w=40u
SYMBOL lib\\sym\\cmosn 192 464 R0
SYMATTR InstName M3
SYMATTR Value2 l=2u w=25u
SYMBOL lib\\sym\\current -464 -448 R0
WINDOW 123 0 0 Left 0
WINDOW 39 0 0 Left 0
SYMATTR InstName I1
SYMATTR Value 80µ
SYMBOL lib\\sym\\cmosn -512 720 R0
SYMATTR InstName M10
SYMATTR Value2 l=2u w=25u
TEXT 848 648 Left 2 ;.op
TEXT 1016 504 Left 2 !.INCLUDE tsmc018.lib
TEXT 1048 432 Left 2 !.ac dec 1000 0.01 10GHz
TEXT 1072 360 Left 2 ;.tran 0 0.1 0 10u
TEXT 1072 -120 Left 2 ;DC gain: 54dB
TEXT 1072 -80 Left 2 ;UGB:5Mhz
TEXT 1072 -32 Left 2 ;Phase Margin: 63 deg
TEXT 1040 -360 Left 2 ;+1 V AC to both inputs for CM gain\n+1 -1 V AC to respective inputs for DM Gain\nCM gain-DM gain = CMRR
TEXT 1064 24 Left 2 ;DM gain: 59.9dB
TEXT 1064 72 Left 2 ;CM gain: -13.235606dB
TEXT 1072 120 Left 2 ;CMRR: 73.1 dB
TEXT 1080 176 Left 2 ;PSRR: 79dB
TEXT 1088 232 Left 2 ;Max slew rate: 7.25127 V/us
